Canindé/Rede_CAI_teste_com_trafos_VLN_Node.Txt

LINE-GROUND and LINE-LINE VOLTAGES BY BUS & NODE

Bus  Node    VLN (kV)   Angle      pu     Base kV    Node-Node   VLL (kV)  Angle      pu

3326 1       50.472 /_   -0.8   0.99341    88.000        1-2     87.398 /_   29.2   0.99315
   - 2        50.44 /_ -120.8   0.99277    88.000        2-3     87.353 /_  -90.8   0.99265
   - 3       50.447 /_  119.2   0.99291    88.000        3-1      87.41 /_  149.2   0.99329
3323 1       7.9217 /_  -30.9   0.99425    13.800        1-2     13.721 /_   -0.9   0.99431
   - 2       7.9203 /_ -150.9   0.99409    13.800        2-3     13.715 /_ -120.9   0.99382
   - 3        7.914 /_   89.1    0.9933    13.800        3-1     13.711 /_  119.1   0.99352
2645 1       7.9215 /_  -30.9   0.99424    13.800        1-2     13.721 /_   -0.9   0.99429
   - 2       7.9203 /_ -150.9   0.99408    13.800        2-3     13.715 /_ -120.9   0.99381
   - 3       7.9139 /_   89.1   0.99329    13.800        3-1      13.71 /_  119.1    0.9935
2221 1       7.9218 /_  -30.9   0.99428    13.800        1-2     13.722 /_   -0.9   0.99433
   - 2       7.9205 /_ -150.9   0.99411    13.800        2-3     13.715 /_ -121.0   0.99384
   - 3        7.914 /_   89.0   0.99329    13.800        3-1     13.711 /_  119.1   0.99352
3324 1       7.8971 /_  -31.2   0.99117    13.800        1-2     13.679 /_   -1.3   0.99122
   - 2       7.8921 /_ -151.3   0.99054    13.800        2-3     13.664 /_ -121.3   0.99017
   - 3       7.8904 /_   88.7   0.99033    13.800        3-1     13.671 /_  118.8   0.99066
3312 1       7.8971 /_  -31.2   0.99117    13.800        1-2     13.679 /_   -1.3   0.99122
   - 2       7.8921 /_ -151.3   0.99054    13.800        2-3     13.664 /_ -121.3   0.99017
   - 3       7.8904 /_   88.7   0.99033    13.800        3-1     13.671 /_  118.8   0.99066
927  1       7.8971 /_  -31.2   0.99117    13.800        1-2     13.679 /_   -1.3   0.99121
   - 2        7.892 /_ -151.3   0.99053    13.800        2-3     13.664 /_ -121.3   0.99016
   - 3       7.8904 /_   88.7   0.99033    13.800        3-1     13.671 /_  118.8   0.99065
1972 1       7.8971 /_  -31.3   0.99118    13.800        1-2     13.679 /_   -1.3   0.99122
   - 2        7.892 /_ -151.3   0.99054    13.800        2-3     13.664 /_ -121.3   0.99017
   - 3       7.8904 /_   88.7   0.99034    13.800        3-1     13.671 /_  118.8   0.99066
13 . 1       7.8969 /_  -31.3   0.99114    13.800        1-2     13.678 /_   -1.3   0.99118
   - 2       7.8916 /_ -151.3   0.99049    13.800        2-3     13.664 /_ -121.3   0.99012
   - 3       7.8902 /_   88.7    0.9903    13.800        3-1     13.671 /_  118.8   0.99062
436  1       7.8965 /_  -31.3    0.9911    13.800        1-2     13.678 /_   -1.3   0.99115
   - 2       7.8915 /_ -151.3   0.99047    13.800        2-3     13.663 /_ -121.3    0.9901
   - 3       7.8898 /_   88.7   0.99026    13.800        3-1      13.67 /_  118.8   0.99058
1100 1       7.8967 /_  -31.3   0.99112    13.800        1-2     13.678 /_   -1.3   0.99117
   - 2       7.8916 /_ -151.3   0.99049    13.800        2-3     13.664 /_ -121.3   0.99012
   - 3         7.89 /_   88.7   0.99029    13.800        3-1      13.67 /_  118.8   0.99061
3247 1       7.9078 /_  -30.9   0.99251    13.800        1-2     13.699 /_   -0.9   0.99266
   - 2       7.9055 /_ -151.0   0.99223    13.800        2-3     13.687 /_ -121.0   0.99184
   - 3        7.902 /_   89.1   0.99179    13.800        3-1      13.69 /_  119.1   0.99204
3325 1       7.9078 /_  -30.9   0.99251    13.800        1-2     13.699 /_   -0.9   0.99266
   - 2       7.9055 /_ -151.0   0.99223    13.800        2-3     13.687 /_ -121.0   0.99184
   - 3        7.902 /_   89.1   0.99179    13.800        3-1      13.69 /_  119.1   0.99204
2922 1       7.9073 /_  -30.9   0.99246    13.800        1-2     13.698 /_   -0.9    0.9926
   - 2        7.905 /_ -151.0   0.99217    13.800        2-3     13.687 /_ -121.0   0.99178
   - 3       7.9016 /_   89.1   0.99173    13.800        3-1     13.689 /_  119.1   0.99198
2648 1       7.9215 /_  -30.9   0.99423    13.800        1-2     13.721 /_   -0.9   0.99428
   - 2       7.9202 /_ -150.9   0.99407    13.800        2-3     13.714 /_ -120.9    0.9938
   - 3       7.9139 /_   89.1   0.99328    13.800        3-1      13.71 /_  119.1   0.99349
2223 1        7.922 /_  -30.9    0.9943    13.800        1-2     13.722 /_   -0.9   0.99434
   - 2       7.9207 /_ -150.9   0.99413    13.800        2-3     13.715 /_ -121.0   0.99385
   - 3       7.9139 /_   89.0   0.99328    13.800        3-1     13.711 /_  119.1   0.99352
928  1       7.8969 /_  -31.3   0.99115    13.800        1-2     13.678 /_   -1.3    0.9912
   - 2       7.8919 /_ -151.3   0.99051    13.800        2-3     13.664 /_ -121.3   0.99014
   - 3       7.8902 /_   88.7    0.9903    13.800        3-1     13.671 /_  118.8   0.99063
1973 1       7.8971 /_  -31.3   0.99118    13.800        1-2     13.679 /_   -1.3   0.99122
   - 2        7.892 /_ -151.3   0.99053    13.800        2-3     13.664 /_ -121.3   0.99017
   - 3       7.8904 /_   88.7   0.99034    13.800        3-1     13.671 /_  118.8   0.99066
1101 1       7.8963 /_  -31.3   0.99107    13.800        1-2     13.677 /_   -1.3   0.99111
   - 2       7.8912 /_ -151.3   0.99043    13.800        2-3     13.663 /_ -121.3   0.99006
   - 3       7.8896 /_   88.7   0.99023    13.800        3-1      13.67 /_  118.7   0.99055
3248 1       7.9078 /_  -30.9   0.99251    13.800        1-2     13.699 /_   -0.9   0.99266
   - 2       7.9055 /_ -151.0   0.99223    13.800        2-3     13.687 /_ -121.0   0.99184
   - 3        7.902 /_   89.1   0.99179    13.800        3-1      13.69 /_  119.1   0.99204
2924 1       7.9069 /_  -30.9    0.9924    13.800        1-2     13.697 /_   -0.9   0.99254
   - 2       7.9045 /_ -151.0    0.9921    13.800        2-3     13.686 /_ -121.0   0.99171
   - 3       7.9011 /_   89.1   0.99167    13.800        3-1     13.688 /_  119.1   0.99192
2647 1       7.9212 /_  -30.9   0.99419    13.800        1-2     13.721 /_   -0.9   0.99425
   - 2       7.9199 /_ -150.9   0.99404    13.800        2-3     13.714 /_ -120.9   0.99376
   - 3       7.9136 /_   89.1   0.99324    13.800        3-1      13.71 /_  119.1   0.99346
2222 1       7.9225 /_  -30.9   0.99436    13.800        1-2     13.723 /_   -0.9    0.9944
   - 2       7.9212 /_ -150.9    0.9942    13.800        2-3     13.716 /_ -121.0    0.9939
   - 3       7.9137 /_   89.0   0.99326    13.800        3-1     13.711 /_  119.1   0.99352
3311 1       7.8971 /_  -31.2   0.99117    13.800        1-2     13.679 /_   -1.3   0.99122
   - 2       7.8921 /_ -151.3   0.99054    13.800        2-3     13.664 /_ -121.3   0.99017
   - 3       7.8904 /_   88.7   0.99033    13.800        3-1     13.671 /_  118.8   0.99066
929  1       7.8969 /_  -31.3   0.99115    13.800        1-2     13.678 /_   -1.3   0.99119
   - 2       7.8918 /_ -151.3   0.99051    13.800        2-3     13.664 /_ -121.3   0.99014
   - 3       7.8902 /_   88.7    0.9903    13.800        3-1     13.671 /_  118.8   0.99063
1975 1       7.8972 /_  -31.3   0.99118    13.800        1-2     13.679 /_   -1.3   0.99122
   - 2        7.892 /_ -151.3   0.99053    13.800        2-3     13.664 /_ -121.3   0.99017
   - 3       7.8905 /_   88.7   0.99034    13.800        3-1     13.671 /_  118.8   0.99066
12 . 1       7.8961 /_  -31.3   0.99105    13.800        1-2     13.677 /_   -1.3   0.99108
   - 2       7.8905 /_ -151.3   0.99034    13.800        2-3     13.662 /_ -121.3   0.98999
   - 3       7.8894 /_   88.7   0.99021    13.800        3-1     13.669 /_  118.7   0.99053
434  1       7.8949 /_  -31.3    0.9909    13.800        1-2     13.675 /_   -1.3   0.99095
   - 2       7.8899 /_ -151.3   0.99027    13.800        2-3     13.661 /_ -121.3    0.9899
   - 3       7.8881 /_   88.7   0.99004    13.800        3-1     13.667 /_  118.7   0.99037
1103 1       7.8956 /_  -31.3   0.99099    13.800        1-2     13.676 /_   -1.3   0.99102
   - 2       7.8905 /_ -151.3   0.99034    13.800        2-3     13.662 /_ -121.3   0.98998
   - 3        7.889 /_   88.7   0.99015    13.800        3-1     13.669 /_  118.7   0.99048
3249 1       7.9078 /_  -30.9   0.99251    13.800        1-2     13.699 /_   -0.9   0.99266
   - 2       7.9055 /_ -151.0   0.99223    13.800        2-3     13.687 /_ -121.0   0.99184
   - 3        7.902 /_   89.1   0.99179    13.800        3-1      13.69 /_  119.1   0.99204
2923 1       7.9051 /_  -30.9   0.99218    13.800        1-2     13.694 /_   -1.0   0.99231
   - 2       7.9025 /_ -151.0   0.99184    13.800        2-3     13.682 /_ -121.0   0.99146
   - 3       7.8992 /_   89.1   0.99143    13.800        3-1     13.685 /_  119.1   0.99169
2646 1       7.9211 /_  -30.9   0.99418    13.800        1-2      13.72 /_   -0.9   0.99424
   - 2       7.9199 /_ -150.9   0.99403    13.800        2-3     13.714 /_ -120.9   0.99376
   - 3       7.9135 /_   89.1   0.99323    13.800        3-1      13.71 /_  119.1   0.99345
2227 1       7.9225 /_  -30.9   0.99437    13.800        1-2     13.723 /_   -0.9   0.99441
   - 2       7.9213 /_ -150.9    0.9942    13.800        2-3     13.716 /_ -121.0    0.9939
   - 3       7.9137 /_   89.0   0.99326    13.800        3-1     13.711 /_  119.1   0.99352
931  1       7.8967 /_  -31.3   0.99112    13.800        1-2     13.678 /_   -1.3   0.99117
   - 2       7.8916 /_ -151.3   0.99048    13.800        2-3     13.664 /_ -121.3   0.99011
   - 3       7.8899 /_   88.7   0.99027    13.800        3-1      13.67 /_  118.8   0.99059
1974 1       7.8972 /_  -31.3   0.99119    13.800        1-2     13.679 /_   -1.3   0.99122
   - 2       7.8919 /_ -151.3   0.99051    13.800        2-3     13.664 /_ -121.3   0.99016
   - 3       7.8905 /_   88.7   0.99035    13.800        3-1     13.671 /_  118.7   0.99067
1102 1       7.8932 /_  -31.3   0.99069    13.800        1-2     13.672 /_   -1.3   0.99071
   - 2        7.888 /_ -151.3   0.99004    13.800        2-3     13.658 /_ -121.3   0.98968
   - 3       7.8866 /_   88.7   0.98986    13.800        3-1     13.665 /_  118.7   0.99019
3269 1       7.9078 /_  -30.9   0.99251    13.800        1-2     13.699 /_   -0.9   0.99266
   - 2       7.9055 /_ -151.0   0.99223    13.800        2-3     13.687 /_ -121.0   0.99184
   - 3        7.902 /_   89.1   0.99179    13.800        3-1      13.69 /_  119.1   0.99204
   - 4   0.00049829 /_   63.9 6.2541E-005    13.800
2926 1       7.9049 /_  -30.9   0.99215    13.800        1-2     13.693 /_   -1.0   0.99228
   - 2       7.9022 /_ -151.0   0.99181    13.800        2-3     13.682 /_ -121.0   0.99143
   - 3       7.8989 /_   89.1    0.9914    13.800        3-1     13.685 /_  119.1   0.99166
2649 1        7.921 /_  -30.9   0.99417    13.800        1-2      13.72 /_   -0.9   0.99423
   - 2       7.9198 /_ -150.9   0.99402    13.800        2-3     13.714 /_ -120.9   0.99375
   - 3       7.9134 /_   89.1   0.99322    13.800        3-1     13.709 /_  119.1   0.99344
2226 1       7.9231 /_  -30.9   0.99444    13.800        1-2     13.724 /_   -0.9   0.99448
   - 2       7.9219 /_ -151.0   0.99428    13.800        2-3     13.717 /_ -121.0   0.99396
   - 3       7.9135 /_   89.0   0.99323    13.800        3-1     13.711 /_  119.1   0.99352
3309 1       7.8971 /_  -31.2   0.99117    13.800        1-2     13.679 /_   -1.3   0.99122
   - 2       7.8921 /_ -151.3   0.99054    13.800        2-3     13.664 /_ -121.3   0.99017
   - 3       7.8904 /_   88.7   0.99033    13.800        3-1     13.671 /_  118.8   0.99066
930  1       7.8959 /_  -31.3   0.99102    13.800        1-2     13.677 /_   -1.3   0.99107
   - 2       7.8908 /_ -151.3   0.99039    13.800        2-3     13.662 /_ -121.3   0.99001
   - 3        7.889 /_   88.7   0.99015    13.800        3-1     13.669 /_  118.7   0.99048
1978 1       7.8972 /_  -31.3   0.99119    13.800        1-2     13.679 /_   -1.3   0.99123
   - 2       7.8919 /_ -151.3   0.99051    13.800        2-3     13.664 /_ -121.3   0.99016
   - 3       7.8905 /_   88.7   0.99035    13.800        3-1     13.671 /_  118.7   0.99067
9 .. 1       7.8954 /_  -31.3   0.99096    13.800        1-2     13.675 /_   -1.3   0.99097
   - 2       7.8893 /_ -151.3   0.99019    13.800        2-3      13.66 /_ -121.3   0.98986
   - 3       7.8887 /_   88.7   0.99011    13.800        3-1     13.668 /_  118.7   0.99044
432  1       7.8933 /_  -31.3    0.9907    13.800        1-2     13.672 /_   -1.3   0.99074
   - 2       7.8883 /_ -151.3   0.99007    13.800        2-3     13.658 /_ -121.3   0.98969
   - 3       7.8864 /_   88.7   0.98983    13.800        3-1     13.664 /_  118.7   0.99016
1106 1       7.8928 /_  -31.3   0.99063    13.800        1-2     13.671 /_   -1.3   0.99065
   - 2       7.8876 /_ -151.4   0.98997    13.800        2-3     13.657 /_ -121.3   0.98962
   - 3       7.8862 /_   88.7    0.9898    13.800        3-1     13.664 /_  118.7   0.99014
2925 1       7.9041 /_  -30.9   0.99206    13.800        1-2     13.692 /_   -1.0   0.99218
   - 2       7.9013 /_ -151.0    0.9917    13.800        2-3      13.68 /_ -121.0   0.99131
   - 3       7.8981 /_   89.0   0.99129    13.800        3-1     13.683 /_  119.1   0.99155
2835 1        7.921 /_  -30.9   0.99417    13.800        1-2      13.72 /_   -0.9   0.99423
   - 2       7.9198 /_ -150.9   0.99402    13.800        2-3     13.714 /_ -120.9   0.99375
   - 3       7.9134 /_   89.1   0.99322    13.800        3-1     13.709 /_  119.1   0.99344
   - 4    0.0016021 /_  -32.3 0.00020108    13.800
2225 1       7.9238 /_  -30.9   0.99453    13.800        1-2     13.725 /_   -1.0   0.99456
   - 2       7.9226 /_ -151.0   0.99437    13.800        2-3     13.718 /_ -121.0   0.99403
   - 3       7.9133 /_   89.0    0.9932    13.800        3-1     13.711 /_  119.0   0.99352
934  1       7.8958 /_  -31.3   0.99101    13.800        1-2     13.676 /_   -1.3   0.99105
   - 2       7.8907 /_ -151.3   0.99037    13.800        2-3     13.662 /_ -121.3   0.98999
   - 3       7.8888 /_   88.7   0.99013    13.800        3-1     13.668 /_  118.7   0.99046
1977 1       7.8973 /_  -31.3    0.9912    13.800        1-2     13.679 /_   -1.3   0.99123
   - 2       7.8917 /_ -151.3    0.9905    13.800        2-3     13.664 /_ -121.3   0.99015
   - 3       7.8906 /_   88.7   0.99036    13.800        3-1     13.671 /_  118.7   0.99068
1105 1         7.89 /_  -31.3   0.99028    13.800        1-2     13.666 /_   -1.3   0.99028
   - 2       7.8847 /_ -151.4   0.98961    13.800        2-3     13.652 /_ -121.3   0.98927
   - 3       7.8835 /_   88.7   0.98946    13.800        3-1     13.659 /_  118.7    0.9898
3267 1       7.9078 /_  -30.9   0.99251    13.800        1-2     13.699 /_   -0.9   0.99266
   - 2       7.9055 /_ -151.0   0.99223    13.800        2-3     13.687 /_ -121.0   0.99184
   - 3        7.902 /_   89.1   0.99179    13.800        3-1      13.69 /_  119.1   0.99204
   - 4   0.00049829 /_   63.9 6.2541E-005    13.800
3029 1       7.9041 /_  -30.9   0.99205    13.800        1-2     13.692 /_   -1.0   0.99218
   - 2       7.9012 /_ -151.0   0.99169    13.800        2-3      13.68 /_ -121.0   0.99131
   - 3        7.898 /_   89.0   0.99129    13.800        3-1     13.683 /_  119.1   0.99155
   - 4    0.0018779 /_   84.0 0.0002357    13.800
2224 1       7.9241 /_  -31.0   0.99456    13.800        1-2     13.725 /_   -1.0   0.99459
   - 2       7.9228 /_ -151.0    0.9944    13.800        2-3     13.718 /_ -121.0   0.99405
   - 3       7.9132 /_   89.0   0.99319    13.800        3-1     13.711 /_  119.0   0.99352
3306 1       7.8971 /_  -31.2   0.99117    13.800        1-2     13.679 /_   -1.3   0.99122
   - 2       7.8921 /_ -151.3   0.99054    13.800        2-3     13.664 /_ -121.3   0.99017
   - 3       7.8904 /_   88.7   0.99033    13.800        3-1     13.671 /_  118.8   0.99066
933  1       7.8948 /_  -31.3   0.99089    13.800        1-2     13.675 /_   -1.3   0.99093
   - 2       7.8897 /_ -151.3   0.99025    13.800        2-3      13.66 /_ -121.3   0.98987
   - 3       7.8876 /_   88.7   0.98998    13.800        3-1     13.666 /_  118.7   0.99032
1976 1       7.8974 /_  -31.3   0.99121    13.800        1-2     13.679 /_   -1.3   0.99123
   - 2       7.8916 /_ -151.4   0.99048    13.800        2-3     13.664 /_ -121.3   0.99013
   - 3       7.8907 /_   88.7   0.99037    13.800        3-1     13.672 /_  118.7   0.99069
7 .. 1       7.8943 /_  -31.3   0.99082    13.800        1-2     13.673 /_   -1.3   0.99081
   - 2       7.8875 /_ -151.4   0.98997    13.800        2-3     13.657 /_ -121.3   0.98965
   - 3       7.8875 /_   88.7   0.98997    13.800        3-1     13.666 /_  118.7    0.9903
431  1       7.8908 /_  -31.3   0.99038    13.800        1-2     13.668 /_   -1.3   0.99043
   - 2       7.8859 /_ -151.4   0.98976    13.800        2-3     13.653 /_ -121.3   0.98938
   - 3       7.8838 /_   88.7    0.9895    13.800        3-1      13.66 /_  118.7   0.98983
1104 1       7.8868 /_  -31.3   0.98988    13.800        1-2      13.66 /_   -1.4   0.98986
   - 2       7.8814 /_ -151.4    0.9892    13.800        2-3     13.646 /_ -121.4   0.98887
   - 3       7.8804 /_   88.7   0.98907    13.800        3-1     13.654 /_  118.7   0.98942
3264 1       7.9078 /_  -30.9   0.99251    13.800        1-2     13.699 /_   -0.9   0.99266
   - 2       7.9055 /_ -151.0   0.99223    13.800        2-3     13.687 /_ -121.0   0.99184
   - 3        7.902 /_   89.1   0.99179    13.800        3-1      13.69 /_  119.1   0.99204
   - 4   0.00049829 /_   63.9 6.2541E-005    13.800
3266 1       7.9078 /_  -30.9   0.99251    13.800        1-2     13.699 /_   -0.9   0.99266
   - 2       7.9055 /_ -151.0   0.99223    13.800        2-3     13.687 /_ -121.0   0.99184
   - 3        7.902 /_   89.1   0.99179    13.800        3-1      13.69 /_  119.1   0.99204
2833 1        7.921 /_  -30.9   0.99417    13.800        1-2      13.72 /_   -0.9   0.99423
   - 2       7.9198 /_ -150.9   0.99402    13.800        2-3     13.714 /_ -120.9   0.99375
   - 3       7.9134 /_   89.1   0.99322    13.800        3-1     13.709 /_  119.1   0.99344
   - 4     0.001602 /_  -32.3 0.00020106    13.800
2228 1       7.9244 /_  -31.0    0.9946    13.800        1-2     13.726 /_   -1.0   0.99462
   - 2       7.9231 /_ -151.0   0.99444    13.800        2-3     13.718 /_ -121.0   0.99408
...
